Circuit: * D:\Repos\SPICE_Works\4_57.asc


Date: Sat Mar 30 18:30:26 2019
Total elapsed time: 0.098 seconds.

tnom = 27
temp = 27
method = trap
totiter = 1017
traniter = 0
tranpoints = 0
accept = 0
rejected = 0
matrix size = 7
fillins = 0
solver = Normal
Matrix Compiler1:      12 opcodes  0.0/[0.0]/0.0
Matrix Compiler2: 461 bytes object code size  0.0/0.1/[0.0]

