Circuit: * D:\Repos\SPICE_Works\4_58.asc


Date: Sat Mar 30 18:26:12 2019
Total elapsed time: 0.094 seconds.

tnom = 27
temp = 27
method = trap
totiter = 1009
traniter = 0
tranpoints = 0
accept = 0
rejected = 0
matrix size = 5
fillins = 0
solver = Normal
Matrix Compiler1: off  [0.0]/0.1/0.1
Matrix Compiler2: 311 bytes object code size  0.0/0.0/[0.0]

