Circuit: * D:\Repos\SPICE_Works\4_59_b.asc

Warning: Multiple definitions of model "rnpn" Type: BJT

Date: Mon Apr 01 20:28:30 2019
Total elapsed time: 0.132 seconds.

tnom = 27
temp = 27
method = trap
totiter = 7204
traniter = 0
tranpoints = 0
accept = 0
rejected = 0
matrix size = 5
fillins = 0
solver = Normal
Matrix Compiler1: 132 bytes object code size  0.2/0.2/[0.1]
Matrix Compiler2: 335 bytes object code size  0.2/0.2/[0.1]

