Circuit: * D:\Repos\SPICE_Works\4_59_a.asc


Date: Sat Mar 30 18:48:10 2019
Total elapsed time: 0.151 seconds.

tnom = 27
temp = 27
method = trap
totiter = 7204
traniter = 0
tranpoints = 0
accept = 0
rejected = 0
matrix size = 4
fillins = 0
solver = Normal
Matrix Compiler1: 118 bytes object code size  0.0/0.1/[0.0]
Matrix Compiler2:      20 opcodes  0.0/[0.0]/0.0

