Circuit: * D:\Repos\SPICE_Works\4_60.asc


Date: Wed Apr 03 20:41:16 2019
Total elapsed time: 0.110 seconds.

tnom = 27
temp = 27
method = trap
totiter = 432
traniter = 0
tranpoints = 0
accept = 0
rejected = 0
matrix size = 6
fillins = 0
solver = Normal
Matrix Compiler1: 164 bytes object code size  0.3/0.1/[0.1]
Matrix Compiler2: 414 bytes object code size  0.8/0.2/[0.2]

