Circuit: * D:\Repos\SPICE_Works\4_61.asc


Date: Thu Apr 04 06:25:05 2019
Total elapsed time: 0.066 seconds.

tnom = 27
temp = 27
method = trap
totiter = 517
traniter = 0
tranpoints = 0
accept = 0
rejected = 0
matrix size = 8
fillins = 0
solver = Normal
Matrix Compiler1: 354 bytes object code size  0.3/0.2/[0.1]
Matrix Compiler2: off  [0.2]/0.2/0.2

